Version 4
SHEET 1 880 780
WIRE 192 -32 0 -32
WIRE 192 0 192 -32
WIRE 0 32 0 -32
WIRE 0 80 0 32
WIRE 144 80 0 80
WIRE 0 112 0 80
WIRE 0 224 0 192
WIRE 192 224 192 96
FLAG 0 224 0
FLAG 192 224 0
FLAG 0 32 v_g_d
SYMBOL generic_nmos.asy 144 0 R0
SYMATTR InstName XU1
SYMATTR Value MODEL_PLACEHOLDER
SYMBOL voltage 0 96 R0
WINDOW 123 0 0 Left 2
WINDOW 39 0 0 Left 2
SYMATTR InstName V1
SYMATTR Value 1
TEXT 0 304 Left 2 !.dc V1 0 5 0.05
TEXT 0 336 Left 2 !.step temp -55 175 10
TEXT 0 368 Left 2 !.lib MODEL_PATH_PLACEHOLDER
TEXT 0 400 Left 2 !.options plotwinsize=0
